599501 MERA FBRGWVOY 109 1518000
599502 BINA IHHGRCUYPSG 796 9559000
599503 BAG PSSE 739 1341000
599504 VILLA MEAPQCV 81 3585000
599505 ARAZI UWDJLTTZQNLW 613 9326000
599506 BAG XPHBXQTHJT 842 249000
599507 EV ZLUVEQGN 160 3301000
599508 DAIRE HLUAZ 714 2691000
599509 TARLA WTQEQQWZVKUL 860 3047000
599510 FABRIKA GPZTTXUH 724 6124000
599511 AMBAR UIH 839 6153000
599512 BAG DZIRB 384 9681000
599513 AMBAR YYKMH 958 1673000
599514 DAIRE TCYBH 350 3889000
599515 DUKKAN LKCPQIAM 227 952000
599516 FIDANLIK QQQWZOAQ 760 6449000
599517 BAG JRCGISD 813 7473000
599518 DAIRE FPY 249 7208000
599519 BOSTAN EKFMTJN 788 3061000
599520 BAG GFAZTKQ 138 7492000
599521 VILLA WIOTAOV 324 2044000
599522 DUKKAN EJOCPI 46 754000
599523 ARAZI RDDHDAFWQIJB 233 935000
599524 DAIRE FCINJREGOZCQ 960 6767000
599525 TARLA VJBTAMAEMGEJJ 596 7591000
599526 AMBAR XFACIBW 889 5524000
599527 BOSTAN FXP 952 8917000
599528 FABRIKA AZOTQMPH 243 819000
599529 CAYIR ZGUJWZ 681 8986000
599530 ZEYTINLIK PISJLNTIBKNZ 600 9865000
599531 TARLA QZCPC 36 4244000
599532 DUKKAN WDFVNPGQIHV 200 5302000
599533 MERA LBJOT 115 2338000
599534 DUKKAN NEG 911 2777000
599535 VILLA XNJQMXPQQFJOVP 247 3826000
599536 VILLA GPRPPGMTHWAIZ 946 3845000
599537 BAHCE CYMDAXYDWVD 591 222000
599538 CAYIR GDZJKY 784 4035000
599539 VILLA MGFLU 98 3126000
599540 DAIRE UMR 615 1796000
599541 VILLA UDCS 424 2845000
599542 BAHCE EBVUSI 425 4987000
599543 ATOLYE REGB 303 5614000
599544 DAIRE FYAT 456 9772000
599545 ARAZI QRBTX 773 1113000
599546 EV SCNHJHJBOZIZ 328 1061000
599547 IMALATHANE RFQUJFCUFZ 339 3685000
599548 ARAZI VKHC 346 1420000
599549 DAIRE ZOQF 311 5103000
599550 FIDANLIK ABYWUHGT 537 262000
599551 TARLA BUOPSTTNVKEYSF 878 1643000
599552 BAHCE CMYRQNTEEBABUS 353 2478000
599553 ARAZI PAKYUX 862 4411000
599554 TARLA RQTLEHDBCIQPT 415 4619000
599555 BINA CMKZMKHTF 174 5018000
599556 TARLA RLWVDTHQHYBPR 368 2525000
599557 BAG KMKZGEDHGRCOD 670 6165000
599558 ZEYTINLIK PZHHVSWJHFEFJ 517 5487000
599559 ATOLYE OPDJ 337 6233000
599560 EV KXEYIO 296 1495000
599561 ATOLYE GUBMS 331 863000
599562 MERA DCHDJNWZRTHXMQ 512 9392000
599563 MERA RTQRAOVRQT 439 490000
599564 EV SODLMBU 353 2152000
599565 EV SXE 256 2896000
599566 MERA QLTNGOBACYOAY 503 3487000
599567 DUKKAN HRTLW 779 6940000
599568 ARAZI XNVN 55 6127000
599569 ATOLYE NGGCCYOVHPR 371 5978000
599570 ZEYTINLIK CHQNPBRDYSEU 847 1528000
599571 IMALATHANE UZELIHAVKX 519 5140000
599572 ZEYTINLIK QAP 415 9711000
599573 ATOLYE EONXXLLLLPG 914 4934000
599574 EV YBH 760 6796000
599575 FIDANLIK UYWLMFS 747 2495000
599576 DAIRE ORL 238 4474000
599577 FIDANLIK VZMINYCVZTVZQE 579 4659000
599578 BOSTAN CAIZVYEMTJW 702 2502000
599579 ZEYTINLIK NJJINOR 821 7945000
599580 CAYIR CUHZIZVIVTISAT 481 5186000
599581 BINA NLFR 73 392000
599582 BINA LHZPIWT 358 7618000
599583 BAG FKMRJOWOLJA 925 8715000
599584 BOSTAN ATGMYRLLGD 592 7844000
599585 CAYIR DUJILJPO 896 5478000
599586 IMALATHANE BOREFUJTJCPKEJ 415 5813000
599587 IMALATHANE INNRAWLJPD 243 8840000
599588 CAYIR VQIMKQFBGWH 832 5893000
599589 VILLA NBOAKEED 302 8719000
599590 DUKKAN BBOQEHQKADTOL 159 4003000
599591 ZEYTINLIK KUEPKAGYQVU 525 2459000
599592 CAYIR ZKF 496 8728000
599593 EV PBWFTTEG 475 7137000
599594 DAIRE ORJTWCTIWM 399 9490000
599595 FABRIKA DDB 397 1874000
599596 AMBAR LCWSYUNCHICMP 275 3821000
599597 VILLA JCC 627 1217000
599598 DAIRE EUAWBYQKYLD 524 5848000
599599 CAYIR ZWXAYIO 833 4883000
599600 TARLA XEYEJKEQ 441 4883000
